13
Charge =  0 Multiplicity = 2
Al -1.510364 2.322337 -0.479028
Al 0.883748 2.001798 -1.643181
Al -2.224062 0.009098 -1.613682
Al -2.456641 -0.248728 1.154147
Al 2.566727 0.019352 -0.901408
Al 0.289851 -0.643468 -2.438105
Al -1.348727 -2.298583 -0.584310
Al 1.306450 -2.328959 -0.459540
Al -0.785425 1.690127 2.130003
Al 1.657973 1.951788 1.019445
Al 2.000568 -0.671867 1.746405
Al -0.355506 -1.868379 1.971735
Al -0.024591 0.065485 0.097520
