16
Charge =  0 Multiplicity = 1
Al 1.729928 -1.884021 0.000000
Al -0.768597 -1.722748 1.528985
Al 2.867986 0.602785 0.000000
Al -2.489064 -0.198398 0.000000
Al -1.091630 0.890051 2.264385
Al 1.424537 -0.389626 -2.273004
Al 1.424537 -0.389626 2.273004
Al -0.768597 -1.722748 -1.528985
Al 1.424537 2.210798 -1.784728
Al -1.850282 2.364073 0.000000
Al -1.091630 0.890051 -2.264385
Al 1.424537 2.210798 1.784728
Al -0.067727 -3.868348 0.000000
Al 0.332983 3.744265 0.000000
Al -2.702471 -3.242177 0.000000
Al 0.200950 0.504871 0.000000
