10
Charge =  1 Multiplicity = 2
Al 2.324482 -1.720294 0.000000
Al -2.393766 -2.161399 0.000000
Al 0.099588 -2.984875 0.000000
Al 0.205185 -0.687890 1.511744
Al 0.205185 -0.687890 -1.511744
Al 0.205185 1.850008 1.609656
Al 2.237536 0.979775 0.000000
Al -1.793948 0.445966 0.000000
Al 0.205185 1.850008 -1.609656
Al -1.294633 3.116591 0.000000
