13
Charge =  1 Multiplicity = 1
Al 1.704291 2.070534 -1.272239
Al -0.970293 2.101420 1.340459
Al 1.808579 1.465042 1.292944
Al 2.586001 -0.402148 -1.335742
Al -2.336927 -0.340516 1.177203
Al -0.000274 -0.082481 2.339036
Al 1.996909 -1.290163 1.126039
Al -0.496978 -2.340987 1.077115
Al -0.880076 2.546751 -1.250967
Al -2.584150 0.548790 -1.318253
Al -1.706087 -1.928961 -1.355995
Al 0.879609 -2.403119 -1.362091
Al -0.000603 0.055838 -0.457508
