14
Charge =  0 Multiplicity = 1
Al -0.685793 1.764801 1.665662
Al 2.204076 1.374364 -1.216694
Al 0.000000 2.695183 -0.786873
Al 1.807612 0.835040 1.524184
Al 2.440723 -1.206407 -0.360844
Al 0.685793 -1.764801 1.665662
Al 0.000000 -2.695183 -0.786873
Al -1.807612 -0.835040 1.524184
Al 0.998082 -0.815657 -2.636874
Al -2.204076 -1.374364 -1.216694
Al -2.440723 1.206407 -0.360844
Al -0.998082 0.815657 -2.636874
Al 0.000000 0.000000 3.917740
Al 0.000000 0.000000 -0.294863
