15
Charge =  1 Multiplicity = 1
Al 0.000000 1.854156 -2.104041
Al 0.000000 1.739314 2.111253
Al 1.569198 2.265656 0.005650
Al -1.569198 2.265656 0.005650
Al -2.286589 0.000000 1.387079
Al -2.271678 0.000000 -1.459278
Al -1.569198 -2.265656 0.005650
Al 0.000000 -1.854156 -2.104041
Al 0.000000 -1.739314 2.111253
Al 1.569198 -2.265656 0.005650
Al 2.271678 0.000000 -1.459278
Al 2.286589 0.000000 1.387079
Al 0.000000 0.000000 -3.852806
Al 0.000000 0.000000 4.020973
Al 0.000000 0.000000 -0.060793
