18
Charge =  0 Multiplicity = 1
Al -0.008744 -1.663393 2.265058
Al -1.253831 -2.687221 0.000000
Al -0.433858 1.064704 2.341559
Al -0.008744 -1.663393 -2.265058
Al -2.401372 -0.641207 -1.365659
Al 2.090642 0.006584 1.503608
Al -2.401372 -0.641207 1.365659
Al 1.751196 -2.165601 0.000000
Al 1.551479 2.145856 0.000000
Al -0.433858 1.064704 -2.341559
Al 2.090642 0.006584 -1.503608
Al -2.062804 1.742408 0.000000
Al 0.587336 -4.304344 1.338778
Al -0.441998 3.591195 -1.394905
Al 0.587336 -4.304344 -1.338778
Al -0.113483 -0.124149 0.000000
Al -0.441998 3.591195 1.394905
Al 1.343430 4.981628 0.000000
