9
Charge =  0 Multiplicity = 2
Al -0.070058 2.876778 0.000000
Al 0.011112 0.325459 1.372805
Al 2.066424 -0.901461 0.000000
Al 0.011112 -2.211056 1.275712
Al 0.011112 -2.211056 -1.275712
Al -2.196029 1.335741 0.000000
Al 0.011112 0.325459 -1.372805
Al 2.341471 1.699738 0.000000
Al -2.186257 -1.239601 0.000000
