9
Charge =  1 Multiplicity = 1
Al 1.512325 2.916697 0.000000
Al -1.935131 0.174582 0.000000
Al -0.142352 -0.822744 1.741997
Al -1.636018 -2.540967 0.000000
Al 0.975492 -2.534817 0.000000
Al -0.142352 1.775073 -1.630204
Al 1.652740 0.079845 0.000000
Al -0.142352 1.775073 1.630204
Al -0.142352 -0.822744 -1.741997
