9
Charge =  1 Multiplicity = 1
Al 0.078794 2.857382 0.000000
Al -0.085156 0.204478 1.578906
Al 1.827876 -0.649732 0.000000
Al -0.085156 -2.339570 1.256313
Al -0.085156 -2.339570 -1.256313
Al -1.981064 1.345863 0.000000
Al -0.085156 0.204478 -1.578906
Al 2.628841 1.913854 0.000000
Al -2.213821 -1.197182 0.000000
