12
Charge =  0 Multiplicity = 1
Al -2.204986 -1.462289 -1.375265
Al 2.210085 -1.453631 -1.376051
Al 0.004943 -2.690771 -0.347123
Al -2.432644 -0.800122 1.166367
Al 2.235508 1.187223 -1.277602
Al 2.432795 -0.799047 1.167512
Al -0.000263 -1.025622 1.936969
Al 1.348998 1.547899 1.383673
Al -2.239180 1.179070 -1.278347
Al -0.003722 2.790272 -0.846340
Al -1.351651 1.548303 1.382020
Al 0.000116 -0.021285 -0.535815
