12
Charge =  1 Multiplicity = 2
Al 1.545759 -0.323100 2.326574
Al -0.000174 1.802003 2.344070
Al -1.545897 -0.323098 2.326839
Al -0.000174 -2.222976 1.274574
Al -0.000174 1.802003 -2.344070
Al -0.000055 2.899144 0.000000
Al -2.682108 -0.499886 0.000000
Al -1.545897 -0.323098 -2.326839
Al 2.683028 -0.498220 0.000000
Al 1.545759 -0.323100 -2.326574
Al -0.000174 -2.222976 -1.274574
Al 0.000106 0.233306 0.000000
