13
Charge = -1 Multiplicity = 1
Al 0.000933 -0.001419 -2.684111
Al 0.376835 2.370415 -1.201494
Al 2.371739 0.374066 -1.199744
Al 1.089558 -2.140105 -1.198861
Al -1.089560 2.140107 1.198860
Al 1.697780 1.697602 1.200064
Al 2.138267 -1.090053 1.201691
Al -0.000934 0.001419 2.684114
Al -1.697778 -1.697602 -1.200065
Al -2.138266 1.090053 -1.201691
Al -2.371741 -0.374068 1.199744
Al -0.376834 -2.370416 1.201493
Al 0.000000 0.000000 0.000001
