10
Charge =  0 Multiplicity = 1
Al 2.075984 -2.104901 -0.000272
Al 1.712746 2.693139 -0.000206
Al 2.875247 0.335901 -0.000371
Al 0.671202 -0.048926 -1.445816
Al 0.671569 -0.048937 1.445640
Al -1.789748 -0.572125 -1.507959
Al -0.458894 -2.424454 0.000048
Al -0.754460 1.834156 0.000112
Al -1.789364 -0.572154 1.508406
Al -3.214282 0.908302 0.000418
