18
Charge = -1 Multiplicity = 2
Al -1.682161 -2.242346 0.170298
Al -2.668206 0.131029 1.309151
Al 1.079915 -2.282067 0.507730
Al -1.656686 2.236997 -0.259736
Al -0.591612 1.640777 2.233883
Al -0.002336 -1.671554 -2.047217
Al -0.606508 -1.168222 2.485168
Al -2.253132 -0.163157 -1.677512
Al 2.149017 -0.098400 -1.376564
Al 1.106967 2.308722 0.073021
Al -0.016115 1.237183 -2.307042
Al 1.765799 0.168695 2.026427
Al -4.353593 -1.403601 -0.358007
Al 3.653335 1.464770 0.443529
Al -4.320233 1.350805 -0.564622
Al -0.166639 0.003053 0.101374
Al 3.628795 -1.420760 0.571224
Al 4.933393 -0.091925 -1.331106
