16
Charge =  1 Multiplicity = 2
Al 1.530418 -2.009970 0.000000
Al -0.859868 -1.640395 1.582664
Al 2.878313 0.372020 0.000000
Al -2.481002 -0.006784 0.000000
Al -1.089029 0.957224 2.267744
Al 1.424635 -0.499443 -2.296922
Al 1.424635 -0.499443 2.296922
Al -0.859868 -1.640395 -1.582664
Al 1.424635 2.091493 -1.899200
Al -1.631593 2.521536 0.000000
Al -1.089029 0.957224 -2.267744
Al 1.424635 2.091493 1.899200
Al -0.328870 -3.975443 0.000000
Al 0.714289 3.679022 0.000000
Al -2.708203 -2.893413 0.000000
Al 0.225902 0.495273 0.000000
